*KEYWORD
*TITLE
                                                                                
$
*DATABASE_FORMAT
         0
$
$
$$$$$$$$$$$$$$$$$$$$$$$$$$$$$$$$$$$$$$$$$$$$$$$$$$$$$$$$$$$$$$$$$$$$$$$$$$$$$$$$
$                               NODE DEFINITIONS                               $
$$$$$$$$$$$$$$$$$$$$$$$$$$$$$$$$$$$$$$$$$$$$$$$$$$$$$$$$$$$$$$$$$$$$$$$$$$$$$$$$
$
*NODE
       1 0.000000000E+00 2.000000000E+00 0.000000000E+00       0       0
       2 0.000000000E+00 0.000000000E+00 0.000000000E+00       0       0
       3 0.000000000E+00 1.000000000E+00 0.000000000E+00       0       0
       4 1.000000000E+01 2.000000000E+00 0.000000000E+00       0       0
       5 8.333333333E+00 2.000000000E+00 0.000000000E+00       0       0
       6 6.666666667E+00 2.000000000E+00 0.000000000E+00       0       0
       7 5.000000000E+00 2.000000000E+00 0.000000000E+00       0       0
       8 3.333333333E+00 2.000000000E+00 0.000000000E+00       0       0
       9 1.666666667E+00 2.000000000E+00 0.000000000E+00       0       0
      10 1.000000000E+01 0.000000000E+00 0.000000000E+00       0       0
      11 1.000000000E+01 1.000000000E+00 0.000000000E+00       0       0
      12 1.666666667E+00 0.000000000E+00 0.000000000E+00       0       0
      13 3.333333333E+00 0.000000000E+00 0.000000000E+00       0       0
      14 5.000000000E+00 0.000000000E+00 0.000000000E+00       0       0
      15 6.666666667E+00 0.000000000E+00 0.000000000E+00       0       0
      16 8.333333333E+00 0.000000000E+00 0.000000000E+00       0       0
      17 1.666666667E+00 1.000000000E+00 0.000000000E+00       0       0
      18 3.333333333E+00 1.000000000E+00 0.000000000E+00       0       0
      19 5.000000000E+00 1.000000000E+00 0.000000000E+00       0       0
      20 6.666666667E+00 1.000000000E+00 0.000000000E+00       0       0
$ ... 43 like lines cut
$
$
$$$$$$$$$$$$$$$$$$$$$$$$$$$$$$$$$$$$$$$$$$$$$$$$$$$$$$$$$$$$$$$$$$$$$$$$$$$$$$$$
$                             SECTION DEFINITIONS                              $
$$$$$$$$$$$$$$$$$$$$$$$$$$$$$$$$$$$$$$$$$$$$$$$$$$$$$$$$$$$$$$$$$$$$$$$$$$$$$$$$
$
*SECTION_SOLID
         1         1
$
$
$$$$$$$$$$$$$$$$$$$$$$$$$$$$$$$$$$$$$$$$$$$$$$$$$$$$$$$$$$$$$$$$$$$$$$$$$$$$$$$$
$                             MATERIAL DEFINITIONS                             $
$$$$$$$$$$$$$$$$$$$$$$$$$$$$$$$$$$$$$$$$$$$$$$$$$$$$$$$$$$$$$$$$$$$$$$$$$$$$$$$$
$
*MAT_ELASTIC
         1  7.80     0.206E+08  0.400000       0.0       0.0       0.0
*MAT_ELASTIC
         2  5.60     0.700E+07  0.300000       0.0       0.0       0.0
$
$
$
$$$$$$$$$$$$$$$$$$$$$$$$$$$$$$$$$$$$$$$$$$$$$$$$$$$$$$$$$$$$$$$$$$$$$$$$$$$$$$$$
$                              PARTS DEFINITIONS                               $
$$$$$$$$$$$$$$$$$$$$$$$$$$$$$$$$$$$$$$$$$$$$$$$$$$$$$$$$$$$$$$$$$$$$$$$$$$$$$$$$
$
$
*PART
Part          1 for Mat         1 and Elem Type         1
         1         1         1         0         0         0         0
$
*PART
Part          2 for Mat         2 and Elem Type         1
         2         1         2         0         0         0         0
$
$
$$$$$$$$$$$$$$$$$$$$$$$$$$$$$$$$$$$$$$$$$$$$$$$$$$$$$$$$$$$$$$$$$$$$$$$$$$$$$$$$
$                             ELEMENT DEFINITIONS                              $
$$$$$$$$$$$$$$$$$$$$$$$$$$$$$$$$$$$$$$$$$$$$$$$$$$$$$$$$$$$$$$$$$$$$$$$$$$$$$$$$
$
*ELEMENT_SOLID
       1       1       2      12      17       3      43      45      59      57
       2       1      12      13      18      17      45      46      60      59
       3       1      13      14      19      18      46      47      61      60
       4       2      14      15      20      19      47      48      62      61
       5       2      15      16      21      20      48      49      63      62
       6       2      16      10      11      21      49      44      58      63
       7       1       3      17       9       1      57      59      52      51
       8       1      17      18       8       9      59      60      53      52
       9       1      18      19       7       8      60      61      54      53
      10       2      19      20       6       7      61      62      55      54
      11       2      20      21       5       6      62      63      56      55
      12       2      21      11       4       5      63      58      50      56
      13       1      43      45      59      57      22      24      38      37
      14       1      45      46      60      59      24      25      39      38
      15       1      46      47      61      60      25      26      40      39
      16       2      47      48      62      61      26      27      41      40
      17       2      48      49      63      62      27      28      42      41
      18       2      49      44      58      63      28      23      30      42
      19       1      57      59      52      51      37      38      36      31
      20       1      59      60      53      52      38      39      35      36
$ ... 4 like lines cut
$
$
$$$$$$$$$$$$$$$$$$$$$$$$$$$$$$$$$$$$$$$$$$$$$$$$$$$$$$$$$$$$$$$$$$$$$$$$$$$$$$$$
$                              COORDINATE SYSTEMS                              $
$$$$$$$$$$$$$$$$$$$$$$$$$$$$$$$$$$$$$$$$$$$$$$$$$$$$$$$$$$$$$$$$$$$$$$$$$$$$$$$$
$
$
$
$$$$$$$$$$$$$$$$$$$$$$$$$$$$$$$$$$$$$$$$$$$$$$$$$$$$$$$$$$$$$$$$$$$$$$$$$$$$$$$$
$                               LOAD DEFINITIONS                               $
$$$$$$$$$$$$$$$$$$$$$$$$$$$$$$$$$$$$$$$$$$$$$$$$$$$$$$$$$$$$$$$$$$$$$$$$$$$$$$$$
$
$
$
$$$$$$$$$$$$$$$$$$$$$$$$$$$$$$$$$$$$$$$$$$$$$$$$$$$$$$$$$$$$$$$$$$$$$$$$$$$$$$$$
$                                RIGID BOUNDRIES                               $
$$$$$$$$$$$$$$$$$$$$$$$$$$$$$$$$$$$$$$$$$$$$$$$$$$$$$$$$$$$$$$$$$$$$$$$$$$$$$$$$
$
$
$
$$$$$$$$$$$$$$$$$$$$$$$$$$$$$$$$$$$$$$$$$$$$$$$$$$$$$$$$$$$$$$$$$$$$$$$$$$$$$$$$
$                              CONTACT DEFINITIONS                             $
$$$$$$$$$$$$$$$$$$$$$$$$$$$$$$$$$$$$$$$$$$$$$$$$$$$$$$$$$$$$$$$$$$$$$$$$$$$$$$$$
$
*SET_SEGMENT
         1     0.000     0.000     0.000     0.000
         3         2        43        57     0.000     0.000     0.000     0.000
         1         3        57        51     0.000     0.000     0.000     0.000
        57        43        22        37     0.000     0.000     0.000     0.000
        51        57        37        31     0.000     0.000     0.000     0.000
$*CONTACT_NODES_TO_SURFACE
$         2         1         3         0         0         0         0         0
$ 0.000     0.000     0.000     0.000     0.000             0 0.000    0.1000E+08
$ 1.000     1.000     0.000     0.000     1.000     1.000     1.000     1.000    
$
$$$$$$$$$$$$$$$$$$$$$$$$$$$$$$$$$$$$$$$$$$$$$$$$$$$$$$$$$$$$$$$$$$$$$$$$$$$$$$$$
$                              CONTROL OPTIONS                                 $
$$$$$$$$$$$$$$$$$$$$$$$$$$$$$$$$$$$$$$$$$$$$$$$$$$$$$$$$$$$$$$$$$$$$$$$$$$$$$$$$
$
*CONTROL_ENERGY
         2         2         2         2
*CONTROL_SHELL
  20.0             1        -1         1         2         2         1
*CONTROL_TIMESTEP
    0.0000    0.9000         0  0.00      0.00    
*CONTROL_TERMINATION
  20.0             0   0.00000   0.00000   0.00000
$
$$$$$$$$$$$$$$$$$$$$$$$$$$$$$$$$$$$$$$$$$$$$$$$$$$$$$$$$$$$$$$$$$$$$$$$$$$$$$$$$
$                                 TIME HISTORY                                 $
$$$$$$$$$$$$$$$$$$$$$$$$$$$$$$$$$$$$$$$$$$$$$$$$$$$$$$$$$$$$$$$$$$$$$$$$$$$$$$$$
$
*DATABASE_BINARY_D3PLOT
0.2000    
*DATABASE_BINARY_D3THDT
0.2000E-01
$
$$$$$$$$$$$$$$$$$$$$$$$$$$$$$$$$$$$$$$$$$$$$$$$$$$$$$$$$$$$$$$$$$$$$$$$$$$$$$$$$
$                              DATABASE OPTIONS                                $
$$$$$$$$$$$$$$$$$$$$$$$$$$$$$$$$$$$$$$$$$$$$$$$$$$$$$$$$$$$$$$$$$$$$$$$$$$$$$$$$
$
*DATABASE_EXTENT_BINARY
         0         0         3         1         0         0         0         0
         0         0         4         0         0         0
$
$$$$$$$$$$$$$$$$$$$$$$$$$$$$$$$$$$$$$$$$$$$$$$$$$$$$$$$$$$$$$$$$$$$$$$$$$$$$$$$$
$                         INITIAL VELOCITY DEFINITIONS                         $
$$$$$$$$$$$$$$$$$$$$$$$$$$$$$$$$$$$$$$$$$$$$$$$$$$$$$$$$$$$$$$$$$$$$$$$$$$$$$$$$
$
*SET_NODE_LIST
         1     0.000     0.000     0.000     0.000
         4         5         6         7        10        11        14        15
        16        19        20        21        23        26        27        28
        29        30        32        33        34        40        41        42
        44        47        48        49        50        54        55        56
        58        61        62        63
*INITIAL_VELOCITY
         1         0         0
-.3000E-01 0.000     0.000     0.000     0.000     0.000    
*END
